Version 4
SHEET 1 880 680
WIRE -160 352 -160 144
WIRE -112 352 -160 352
WIRE -112 384 -160 384
WIRE -160 448 -160 384
FLAG -160 448 0
FLAG -16 384 TEMP
FLAG -800 352 0
FLAG -800 272 TEMP
FLAG -928 352 0
FLAG -928 272 5V
FLAG -160 64 5V
SYMBOL lm335 -64 368 R0
SYMATTR InstName U2
SYMBOL voltage -800 256 R0
WINDOW 3 31 86 Left 2
WINDOW 123 0 0 Left 0
WINDOW 39 0 0 Left 0
SYMATTR Value 25
SYMATTR InstName V2
SYMBOL voltage -928 256 R0
WINDOW 123 0 0 Left 0
WINDOW 39 0 0 Left 0
SYMATTR InstName V3
SYMATTR Value 5V
SYMBOL OpAmps\\LT6004 144 208 R0
SYMATTR InstName U1
SYMBOL res -176 48 R0
SYMATTR InstName R1
SYMATTR Value 1.2k
TEXT -960 456 Left 2 !.dc v2 -40 150 1
